Input Parameters:
   integrator                     = md
   tinit                          = 0
   dt                             = 0.002
   nsteps                         = 500000
   init-step                      = 0
   simulation-part                = 1
   comm-mode                      = Linear
   nstcomm                        = 100
   bd-fric                        = 0
   ld-seed                        = -311003349
   emtol                          = 10
   emstep                         = 0.01
   niter                          = 20
   fcstep                         = 0
   nstcgsteep                     = 1000
   nbfgscorr                      = 10
   rtpi                           = 0.05
   nstxout                        = 0
   nstvout                        = 0
   nstfout                        = 0
   nstlog                         = 1000
   nstcalcenergy                  = 100
   nstenergy                      = 1000
   nstxout-compressed             = 250
   compressed-x-precision         = 1000
   cutoff-scheme                  = Verlet
   nstlist                        = 10
   pbc                            = xyz
   periodic-molecules             = false
   verlet-buffer-tolerance        = 0.005
   rlist                          = 0.607
   coulombtype                    = PME
   coulomb-modifier               = Potential-shift
   rcoulomb-switch                = 0
   rcoulomb                       = 0.6
   epsilon-r                      = 1
   epsilon-rf                     = inf
   vdw-type                       = Cut-off
   vdw-modifier                   = Potential-shift
   rvdw-switch                    = 0
   rvdw                           = 0.6
   DispCorr                       = AllEnerPres
   table-extension                = 1
   fourierspacing                 = 0.12
   fourier-nx                     = 14
   fourier-ny                     = 14
   fourier-nz                     = 14
   pme-order                      = 4
   ewald-rtol                     = 1e-05
   ewald-rtol-lj                  = 0.001
   lj-pme-comb-rule               = Geometric
   ewald-geometry                 = 0
   epsilon-surface                = 0
   tcoupl                         = V-rescale
   nsttcouple                     = 10
   nh-chain-length                = 0
   print-nose-hoover-chain-variables = false
   pcoupl                         = Parrinello-Rahman
   pcoupltype                     = Isotropic
   nstpcouple                     = 10
   tau-p                          = 1
   compressibility (3x3):
      compressibility[    0]={ 4.50000e-05,  0.00000e+00,  0.00000e+00}
      compressibility[    1]={ 0.00000e+00,  4.50000e-05,  0.00000e+00}
      compressibility[    2]={ 0.00000e+00,  0.00000e+00,  4.50000e-05}
   ref-p (3x3):
      ref-p[    0]={ 1.01325e+00,  0.00000e+00,  0.00000e+00}
      ref-p[    1]={ 0.00000e+00,  1.01325e+00,  0.00000e+00}
      ref-p[    2]={ 0.00000e+00,  0.00000e+00,  1.01325e+00}
   refcoord-scaling               = No
   posres-com (3):
      posres-com[0]= 0.00000e+00
      posres-com[1]= 0.00000e+00
      posres-com[2]= 0.00000e+00
   posres-comB (3):
      posres-comB[0]= 0.00000e+00
      posres-comB[1]= 0.00000e+00
      posres-comB[2]= 0.00000e+00
   QMMM                           = false
   QMconstraints                  = 0
   QMMMscheme                     = 0
   MMChargeScaleFactor            = 1
qm-opts:
   ngQM                           = 0
   constraint-algorithm           = Lincs
   continuation                   = false
   Shake-SOR                      = false
   shake-tol                      = 0.0001
   lincs-order                    = 4
   lincs-iter                     = 1
   lincs-warnangle                = 30
   nwall                          = 0
   wall-type                      = 9-3
   wall-r-linpot                  = -1
   wall-atomtype[0]               = -1
   wall-atomtype[1]               = -1
   wall-density[0]                = 0
   wall-density[1]                = 0
   wall-ewald-zfac                = 3
   pull                           = false
   awh                            = false
   rotation                       = false
   interactiveMD                  = false
   disre                          = No
   disre-weighting                = Conservative
   disre-mixed                    = false
   dr-fc                          = 1000
   dr-tau                         = 0
   nstdisreout                    = 100
   orire-fc                       = 0
   orire-tau                      = 0
   nstorireout                    = 100
   free-energy                    = no
   cos-acceleration               = 0
   deform (3x3):
      deform[    0]={ 0.00000e+00,  0.00000e+00,  0.00000e+00}
      deform[    1]={ 0.00000e+00,  0.00000e+00,  0.00000e+00}
      deform[    2]={ 0.00000e+00,  0.00000e+00,  0.00000e+00}
   simulated-tempering            = false
   swapcoords                     = no
   userint1                       = 0
   userint2                       = 0
   userint3                       = 0
   userint4                       = 0
   userreal1                      = 0
   userreal2                      = 0
   userreal3                      = 0
   userreal4                      = 0
   applied-forces:
     electric-field:
       x:
         E0                       = 0
         omega                    = 0
         t0                       = 0
         sigma                    = 0
       y:
         E0                       = 0
         omega                    = 0
         t0                       = 0
         sigma                    = 0
       z:
         E0                       = 0
         omega                    = 0
         t0                       = 0
         sigma                    = 0
     density-guided-simulation:
       active                     = false
       group                      = protein
       similarity-measure         = inner-product
       atom-spreading-weight      = unity
       force-constant             = 1e+09
       gaussian-transform-spreading-width = 0.2
       gaussian-transform-spreading-range-in-multiples-of-width = 4
       reference-density-filename = reference.mrc
       nst                        = 1
       normalize-densities        = true
       adaptive-force-scaling     = false
       adaptive-force-scaling-time-constant = 4
grpopts:
   nrdf:         645
   ref-t:         300
   tau-t:           1
annealing:          No
annealing-npoints:           0
   acc:	           0           0           0
   nfreeze:           N           N           N
   energygrp-flags[  0]: 0

Changing nstlist from 10 to 25, rlist from 0.607 to 0.67

Using 1 MPI process

Non-default thread affinity set, disabling internal thread affinity

Using 1 OpenMP thread

System total charge: 0.000
Will do PME sum in reciprocal space for electrostatic interactions.

Using a Gaussian width (1/beta) of 0.192098 nm for Ewald
Potential shift: LJ r^-12: -4.594e+02 r^-6: -2.143e+01, Ewald -1.667e-05
Initialized non-bonded Ewald tables, spacing: 7.23e-04 size: 832

Using SIMD 4x8 nonbonded short-range kernels

Using a dual 4x8 pair-list setup updated with dynamic pruning:
  outer list: updated every 25 steps, buffer 0.070 nm, rlist 0.670 nm
  inner list: updated every  8 steps, buffer 0.002 nm, rlist 0.602 nm
At tolerance 0.005 kJ/mol/ps per atom, equivalent classical 1x1 list would be:
  outer list: updated every 25 steps, buffer 0.144 nm, rlist 0.744 nm
  inner list: updated every  8 steps, buffer 0.026 nm, rlist 0.626 nm

Using geometric Lennard-Jones combination rule

Long Range LJ corr.: <C6> 2.8653e-04 <C12> 3.0191e-07

Removing pbc first time

There are: 323 Atoms

Constraining the starting coordinates (step 0)

Constraining the coordinates at t0-dt (step 0)
Center of mass motion removal mode is Linear
We have the following groups for center of mass motion removal:
  0:  rest
RMS relative constraint deviation after constraining: 0.00e+00
Initial temperature: 285.268 K

PLUMED: PLUMED is starting
PLUMED: Version: 2.6.1 (git: Unknown) compiled on Jan 19 2021 at 18:19:50
PLUMED: Please cite these papers when using PLUMED [1][2]
PLUMED: For further information see the PLUMED web page at http://www.plumed.org
PLUMED: Root: /jet/packages/spack/opt/spack/linux-centos8-zen2/gcc-10.2.0/plumed-2.6.1-k62ifixvl6p64x42c5wd3rjcvhhozwbf/lib/plumed
PLUMED: For installed feature, see /jet/packages/spack/opt/spack/linux-centos8-zen2/gcc-10.2.0/plumed-2.6.1-k62ifixvl6p64x42c5wd3rjcvhhozwbf/lib/plumed/src/config/config.txt
PLUMED: Molecular dynamics engine: gromacs
PLUMED: Precision of reals: 4
PLUMED: Running over 1 node
PLUMED: Number of threads: 1
PLUMED: Cache line size: 512
PLUMED: Number of atoms: 323
PLUMED: File suffix:
PLUMED: FILE: plumed.dat
PLUMED: Action DISTANCE
PLUMED:   with label dist
PLUMED:   between atoms 322 323
PLUMED:   using periodic boundary conditions
PLUMED: Action COORDINATION
PLUMED:   with label coord
PLUMED:   between two groups of 1 and 107 atoms
PLUMED:   first group:
PLUMED:   322
PLUMED:   second group:
PLUMED:   1  4  7  10  13  16  19  22  25  28  31  34  37  40  43  46  49  52  55  58  61  64  67  70
PLUMED:   73  76  79  82  85  88  91  94  97  100  103  106  109  112  115  118  121  124  127  130  133  136  139  142  145
PLUMED:   148  151  154  157  160  163  166  169  172  175  178  181  184  187  190  193  196  199  202  205  208  211  214  217  220
PLUMED:   223  226  229  232  235  238  241  244  247  250  253  256  259  262  265  268  271  274  277  280  283  286  289  292  295
PLUMED:   298  301  304  307  310  313  316  319
PLUMED:   using periodic boundary conditions
PLUMED:   using neighbor lists with
PLUMED:   update every 10 steps and cutoff 0.550000
PLUMED:   contacts are counted with cutoff 0.315.  Using rational switching function with parameters d0=0 nn=12 mm=24
PLUMED: Action UPPER_WALLS
PLUMED:   with label uwall
PLUMED:   with arguments dist
PLUMED:   added component to this action:  uwall.bias
PLUMED:   at 0.600000
PLUMED:   with an offset 0.000000
PLUMED:   with force constant 4000.000000
PLUMED:   and exponent 2.000000
PLUMED:   rescaled 1.000000
PLUMED:   added component to this action:  uwall.force2
PLUMED: Action PRINT
PLUMED:   with label @3
PLUMED:   with stride 250
PLUMED:   with arguments dist coord uwall.bias uwall.force2
PLUMED:   on file colvar.data
PLUMED:   with format  %f
PLUMED: END FILE: plumed.dat
PLUMED: Timestep: 0.002000
PLUMED: KbT: 2.494339
PLUMED: Relevant bibliography:
PLUMED:   [1] The PLUMED consortium, Nat. Methods 16, 670 (2019)
PLUMED:   [2] Tribello, Bonomi, Branduardi, Camilloni, and Bussi, Comput. Phys. Commun. 185, 604 (2014)
PLUMED: Please read and cite where appropriate!
PLUMED: Finished setup
Started mdrun on rank 0 Tue Mar 21 16:35:21 2023

           Step           Time
              0        0.00000

   Energies (kJ/mol)
        LJ (SR)  Disper. corr.   Coulomb (SR)   Coul. recip.      Potential
    8.58019e+02   -1.73177e+02   -6.15742e+03    3.72828e+02   -5.09975e+03
    Kinetic En.   Total Energy  Conserved En.    Temperature Pres. DC (bar)
    7.66048e+02   -4.33370e+03   -4.33350e+03    2.85688e+02   -8.81959e+02
   -2.89112e+02

	<====  A V E R A G E S  ====>

	Statistics over 500001 steps using 5001 frames

   Energies (kJ/mol)
        LJ (SR)  Disper. corr.   Coulomb (SR)   Coul. recip.      Potential
    8.48363e+02   -1.70987e+02   -6.10834e+03    3.73219e+02   -5.05774e+03
    Kinetic En.   Total Energy  Conserved En.    Temperature Pres. DC (bar)
    8.04772e+02   -4.25297e+03   -4.30579e+03    3.00130e+02   -8.60602e+02
 Pressure (bar)
   -3.50738e+00

          Box-X          Box-Y          Box-Z
    1.49215e+00    1.49215e+00    1.49215e+00

   Total Virial (kJ/mol)
    2.70757e+02   -1.55344e+00    5.85006e-01
   -1.90385e+00    2.66789e+02   -1.12287e+00
    4.30963e-01   -1.34188e+00    2.72763e+02

   Pressure (bar)
   -1.71157e+01    1.64456e+01   -7.06750e+00
    1.99521e+01    2.73540e+01    1.15089e+01
   -5.57600e+00    1.36951e+01   -2.07605e+01
